"""
Detailed chemical kinetic mechanism for the oxidation of biodiesel fuels blend surrogate
Olivier Herbinet, William J. Pitz and Charles K. Westbrook
Lawrence Livermore National Laboratory
Combustion and Flame, submitted
July 2009
Methyl Decanoate & n-Heptane
version 2
LLNL-MI-415050


Detailed chemical kinetic mechanism for the oxidation of biodiesel fuels blend surrogate
Olivier Herbinet, William J. Pitz and Charles K. Westbrook
Lawrence Livermore National Laboratory
Combustion and Flame, submitted
July 2009
Methyl Decanoate & n-Heptane
version 2
LLNL-MI-415050





"""

units(length='cm', time='s', quantity='mol', act_energy='cal/mol')

ideal_gas(name='gas',
          elements="H C O N Ar",
          species="""ar                n2                h
                     c                 ch                ch2
                     ch2(s)            ch3               c2h5
                     nc3h7             pc4h9             sc4h9
                     c3h5-a            c2h3              ic3h7
                     ic4h9             c2h               c3h5-s
                     c3h5-t            c3h3              c3h2
                     c5h11-1           c6h13-1           c7h15-1
                     c8h17-1           c9h19-1           c5h11-2
                     c6h13-2           c7h15-2           c8h17-2
                     c9h19-2           c5h11-3           c6h13-3
                     c7h15-3           c8h17-3           c9h19-3
                     c7h15-4           c8h17-4           c9h19-4
                     c10h21-3          c9h19-5           c9h17-13
                     c8h15-13          c7h13-13          c6h11-13
                     c5h9-13           c4h7-13           c9h17-14
                     c9h17-15          c9h17-16          c9h17-17
                     c9h17-18          c9h17-19          c8h15-14
                     c8h15-15          c8h15-16          c8h15-17
                     c8h15-18          c7h13-14          c7h13-15
                     c7h13-16          c7h13-17          c6h11-14
                     c6h11-15          c6h11-16          c5h9-14
                     c5h9-15           c4h7-14           c9h17-11
                     c9h17-12          c8h15-11          c8h15-12
                     c7h13-11          c7h13-12          c6h11-11
                     c6h11-12          c5h9-11           c5h9-12
                     c4h7-11           c4h7-12           c4h81ch32
                     c9h181ch32        c8h161ch32        c7h141ch32
                     c6h121ch32        c5h101ch32        c8h15-31
                     c8h15-41          c8h15-38          c8h15-28
                     c5h9-25           c7h13-31          c7h13-37
                     c7h13-27          c6h11-31          c6h11-26
                     o                 oh                ho2
                     ch2oh             ch3o              hco
                     ocho              o2cho             hoch2o
                     hoch2o2           ch3oco            c9h19co
                     ch3o2             ch3co             ch2co
                     c2h5co            c3h7co            c4h9co
                     c5h11co           c6h13co           c7h15co
                     c8h17co           c8h17chco         c7h15chco
                     c6h13chco         c5h11chco         c4h9chco
                     c3h7chco          c2h5o2            c2h5o
                     ch2cho            c2h4o2h           c2h4o1-2
                     c2h3o1-2          ch3co3            ch3co2
                     hcco              pc2h4oh           sc2h4oh
                     o2c2h4oh          ch3coch2          ch3coch2o2
                     c2h3co            ch2ocho           ch3coch2o
                     ch3och2           ch3och2o2         hoch2oco
                     ch2och2o2h        ch3och2o          o2ch2och2o2h
                     och2ocho          nc3h7o2           ic3h7o2
                     c3h6o1-2          hoc3h6o2          c3h5o
                     c2h3ooh           c3h6ooh2-1        c3h6ooh2-2
                     c3h6o1-3          c3h6ooh1-2        c3h6ooh1-3
                     c3h6ooh1-2o2      c3h6ooh1-3o2      c3h6ooh2-1o2
                     c3ket12           c3ket13           c3ket21
                     c8h17coco         c7h15coch2co      c4h9coc2h4
                     c4h9coch2         c3h7coc2h4        c3h7coch2
                     c2h5coch2         c2h4coch3         c2h4cho
                     c5h11coch2        c2h5coc2h4        choco2j
                     daoj2oxo          daoj3oxo          c6h13coch2
                     c5h11coc2h4       c4h9coc3h6        c3h7coc3h6
                     c2h5coc3h6        ch3coc3h6         da3doj
                     da2doj            choch2co          ch3coch2co
                     c2h5coch2co       c3h7coch2co       c4h9coch2co
                     c5h11coch2co      c6h13coch2co      md2j
                     md3j              md4j              md5j
                     md6j              md7j              md8j
                     md9j              md10j             mdmj
                     mn9j              mo8j              ms7j
                     mh6j              mf5j              mb4j
                     mp3j              me2j              md9d
                     md8d              md7d              md6d
                     md5d              md4d              md3d
                     md2d              mn8d              mn7d
                     mn6d              mn5d              mn4d
                     mn3d              mn2d              mo7d
                     mo6d              mo5d              mo4d
                     mo3d              mo2d              ms6d
                     ms5d              ms4d              ms3d
                     ms2d              mh5d              mh4d
                     mh3d              mh2d              mf4d
                     mf3d              mf2d              mb3d
                     mb2d              mp2d              mn8j
                     mn7j              mn6j              mn5j
                     mn4j              mn3j              mn2j
                     mo7j              mo6j              mo5j
                     mo4j              mo3j              mo2j
                     ms6j              ms5j              ms4j
                     ms3j              ms2j              mh5j
                     mh4j              mh3j              mh2j
                     mf4j              mf3j              mf2j
                     mb3j              mb2j              mp2j
                     mnmj              mojm              msmj
                     mhmj              mfmj              mbmj
                     mpmj              memj              peaoj
                     mp2dmj            mb3dmj            mb3d2j
                     mf4dmj            mf4d2j            mf4d3j
                     mh5dmj            mh5d2j            mh5d3j
                     mh5d4j            ms6dmj            ms6d2j
                     ms6d3j            ms6d4j            ms6d5j
                     mo7dmj            mo7d2j            mo7d3j
                     mo7d4j            mo7d5j            mo7d6j
                     mn8dmj            mn8d2j            mn8d3j
                     mn8d4j            mn8d5j            mn8d6j
                     mn8d7j            md9dmj            md9d2j
                     md9d3j            md9d4j            md9d5j
                     md9d6j            md9d7j            md9d8j
                     mp2d2j            mp2d3j            mb3d3j
                     mb3d4j            mf4d4j            mf4d5j
                     mh5d5j            mh5d6j            ms6d6j
                     ms6d7j            mo7d7j            mo7d8j
                     mn8d8j            mn8d9j            md9d9j
                     md9d10j           mf2d5j            mh3d6j
                     ms4d7j            mo5d8j            mn6d9j
                     mh2d6j            ms3d7j            mo4d8j
                     mn5d9j            mo3d8j            ms2d7j
                     mo2d8j            md8dmj            md8d2j
                     md8d3j            md8d4j            md8d5j
                     md8d6j            md8d7j            md8d8j
                     md8d9j            md7dmj            md7d2j
                     md7d3j            md7d4j            md7d5j
                     md7d6j            md7d7j            md7d8j
                     md7d10j           md6dmj            md6d2j
                     md6d3j            md6d4j            md6d5j
                     md6d6j            md6d7j            md6d9j
                     md6d10j           md5dmj            md5d2j
                     md5d3j            md5d4j            md5d5j
                     md5d6j            md5d8j            md5d9j
                     md5d10j           md4dmj            md4d2j
                     md4d3j            md4d4j            md4d5j
                     md4d7j            md4d8j            md4d9j
                     md4d10j           md3dmj            md3d2j
                     md3d3j            md3d4j            md3d6j
                     md3d7j            md3d8j            md3d9j
                     md3d10j           md2dmj            md2d2j
                     md2d3j            md2d5j            md2d6j
                     md2d7j            md2d8j            md2d9j
                     md2d10j           c3h5co            c4h7co
                     c5h9co            c6h11co           c7h13co
                     c8h15co           c9h17co           c9h17co-2
                     c9h17co-3         c9h17co-4         c9h17co-5
                     c9h17co-6         c9h17co-7         c9h17co-8
                     c9h19o2-1         c8h17o2-1         c7h15o2-1
                     c6h13o2-1         c5h11o2-1         c9h19o2-2
                     c8h17o2-2         c7h15o2-2         c6h13o2-2
                     c5h11o2-2         c9h19o2-3         c8h17o2-3
                     c7h15o2-3         c6h13o2-3         c5h11o2-3
                     c9h19o2-4         c8h17o2-4         c7h15o2-4
                     pc4h9o2           sc4h9o2           c9h19o2-5
                     me2o2             memo2             mpmo2
                     mp2o2             mp3o2             mbmo2
                     mb2o2             mb3o2             mb4o2
                     mfmo2             mf2o2             mf3o2
                     mf4o2             mf5o2             mhmo2
                     mh2o2             mh3o2             mh4o2
                     mh5o2             mh6o2             msmo2
                     ms2o2             ms3o2             ms4o2
                     ms5o2             ms6o2             ms7o2
                     mamo2             mo2o2             mo3o2
                     mo4o2             mo5o2             mo6o2
                     mo7o2             mo8o2             mnmo2
                     mn2o2             mn3o2             mn4o2
                     mn5o2             mn6o2             mn7o2
                     mn8o2             mn9o2             mdmo2
                     md2o2             md3o2             md4o2
                     md5o2             md6o2             md7o2
                     md8o2             md9o2             md10o2
                     c4h8ooh1-2        c4h8ooh1-3        c4h8ooh1-4
                     c4h8ooh2-1        c4h8ooh2-3        c4h8ooh2-4
                     c5h10ooh1-2       c5h10ooh1-3       c5h10ooh1-4
                     c5h10ooh1-5       c5h10ooh2-1       c5h10ooh2-3
                     c5h10ooh2-4       c5h10ooh2-5       c5h10ooh3-1
                     c5h10ooh3-2       c6h12ooh1-2       c6h12ooh1-3
                     c6h12ooh1-4       c6h12ooh1-5       c6h12ooh2-1
                     c6h12ooh2-3       c6h12ooh2-4       c6h12ooh2-5
                     c6h12ooh2-6       c6h12ooh3-1       c6h12ooh3-2
                     c6h12ooh3-4       c6h12ooh3-5       c6h12ooh3-6
                     c7h14ooh1-2       c7h14ooh1-3       c7h14ooh1-4
                     c7h14ooh1-5       c7h14ooh2-1       c7h14ooh2-3
                     c7h14ooh2-4       c7h14ooh2-5       c7h14ooh2-6
                     c7h14ooh3-1       c7h14ooh3-2       c7h14ooh3-4
                     c7h14ooh3-5       c7h14ooh3-6       c7h14ooh3-7
                     c7h14ooh4-1       c7h14ooh4-2       c7h14ooh4-3
                     c8h16ooh1-2       c8h16ooh1-3       c8h16ooh1-4
                     c8h16ooh1-5       c8h16ooh2-1       c8h16ooh2-3
                     c8h16ooh2-4       c8h16ooh2-5       c8h16ooh2-6
                     c8h16ooh3-1       c8h16ooh3-2       c8h16ooh3-4
                     c8h16ooh3-5       c8h16ooh3-6       c8h16ooh3-7
                     c8h16ooh4-1       c8h16ooh4-2       c8h16ooh4-3
                     c8h16ooh4-5       c8h16ooh4-6       c8h16ooh4-7
                     c8h16ooh4-8       c9h18ooh1-2       c9h18ooh1-3
                     c9h18ooh1-4       c9h18ooh1-5       c9h18ooh2-1
                     c9h18ooh2-3       c9h18ooh2-4       c9h18ooh2-5
                     c9h18ooh2-6       c9h18ooh3-1       c9h18ooh3-2
                     c9h18ooh3-4       c9h18ooh3-5       c9h18ooh3-6
                     c9h18ooh3-7       c9h18ooh4-1       c9h18ooh4-2
                     c9h18ooh4-3       c9h18ooh4-5       c9h18ooh4-6
                     c9h18ooh4-7       c9h18ooh4-8       c9h18ooh5-1
                     c9h18ooh5-2       c9h18ooh5-3       c9h18ooh5-4
                     memooh2j          me2oohmj          mpmooh2j
                     mpmooh3j          mp2oohmj          mp2ooh3j
                     mp3oohmj          mp3ooh2j          mbmooh2j
                     mbmooh3j          mb2oohmj          mb2ooh3j
                     mb2ooh4j          mb3oohmj          mb3ooh2j
                     mb3ooh4j          mb4ooh3j          mb4ooh2j
                     mfmooh2j          mfmooh3j          mf2oohmj
                     mf2ooh3j          mf2ooh4j          mf2ooh5j
                     mf3oohmj          mf3ooh2j          mf3ooh4j
                     mf3ooh5j          mf4ooh3j          mf4ooh2j
                     mf4ooh5j          mf5ooh4j          mf5ooh3j
                     mf5ooh2j          mhmooh2j          mhmooh3j
                     mh2oohmj          mh2ooh3j          mh2ooh4j
                     mh2ooh5j          mh2ooh6j          mh3oohmj
                     mh3ooh2j          mh3ooh4j          mh3ooh5j
                     mh3ooh6j          mh4ooh3j          mh4ooh2j
                     mh4ooh5j          mh4ooh6j          mh5ooh4j
                     mh5ooh3j          mh5ooh2j          mh5ooh6j
                     mh6ooh5j          mh6ooh4j          mh6ooh3j
                     mh6ooh2j          msmooh2j          msmooh3j
                     ms2oohmj          ms2ooh3j          ms2ooh4j
                     ms2ooh5j          ms2ooh6j          ms3oohmj
                     ms3ooh2j          ms3ooh4j          ms3ooh5j
                     ms3ooh6j          ms3ooh7j          ms4ooh3j
                     ms4ooh2j          ms4ooh5j          ms4ooh6j
                     ms4ooh7j          ms5ooh4j          ms5ooh3j
                     ms5ooh2j          ms5ooh6j          ms5ooh7j
                     ms6ooh5j          ms6ooh4j          ms6ooh3j
                     ms6ooh2j          ms6ooh7j          ms7ooh6j
                     ms7ooh5j          ms7ooh4j          ms7ooh3j
                     mamooh2j          mamooh3j          mo2oohmj
                     mo2ooh3j          mo2ooh4j          mo2ooh5j
                     mo2ooh6j          mo3oohmj          mo3ooh2j
                     mo3ooh4j          mo3ooh5j          mo3ooh6j
                     mo3ooh7j          mo4ooh3j          mo4ooh2j
                     mo4ooh5j          mo4ooh6j          mo4ooh7j
                     mo4ooh8j          mo5ooh4j          mo5ooh3j
                     mo5ooh2j          mo5ooh6j          mo5ooh7j
                     mo5ooh8j          mo6ooh5j          mo6ooh4j
                     mo6ooh3j          mo6ooh2j          mo6ooh7j
                     mo6ooh8j          mo7ooh6j          mo7ooh5j
                     mo7ooh4j          mo7ooh3j          mo7ooh8j
                     mo8ooh7j          mo8ooh6j          mo8ooh5j
                     mo8ooh4j          mnmooh2j          mnmooh3j
                     mn2oohmj          mn2ooh3j          mn2ooh4j
                     mn2ooh5j          mn2ooh6j          mn3oohmj
                     mn3ooh2j          mn3ooh4j          mn3ooh5j
                     mn3ooh6j          mn3ooh7j          mn4ooh3j
                     mn4ooh2j          mn4ooh5j          mn4ooh6j
                     mn4ooh7j          mn4ooh8j          mn5ooh4j
                     mn5ooh3j          mn5ooh2j          mn5ooh6j
                     mn5ooh7j          mn5ooh8j          mn5ooh9j
                     mn6ooh5j          mn6ooh4j          mn6ooh3j
                     mn6ooh2j          mn6ooh7j          mn6ooh8j
                     mn6ooh9j          mn7ooh6j          mn7ooh5j
                     mn7ooh4j          mn7ooh3j          mn7ooh8j
                     mn7ooh9j          mn8ooh7j          mn8ooh6j
                     mn8ooh5j          mn8ooh4j          mn8ooh9j
                     mn9ooh8j          mn9ooh7j          mn9ooh6j
                     mn9ooh5j          mdmooh2j          mdmooh3j
                     md2oohmj          md2ooh3j          md2ooh4j
                     md2ooh5j          md2ooh6j          md3oohmj
                     md3ooh2j          md3ooh4j          md3ooh5j
                     md3ooh6j          md3ooh7j          md4ooh3j
                     md4ooh2j          md4ooh5j          md4ooh6j
                     md4ooh7j          md4ooh8j          md5ooh4j
                     md5ooh3j          md5ooh2j          md5ooh6j
                     md5ooh7j          md5ooh8j          md5ooh9j
                     md6ooh5j          md6ooh4j          md6ooh3j
                     md6ooh2j          md6ooh7j          md6ooh8j
                     md6ooh9j          md6ooh10j         md7ooh6j
                     md7ooh5j          md7ooh4j          md7ooh3j
                     md7ooh8j          md7ooh9j          md7ooh10j
                     md8ooh7j          md8ooh6j          md8ooh5j
                     md8ooh4j          md8ooh9j          md8ooh10j
                     md9ooh8j          md9ooh7j          md9ooh6j
                     md9ooh5j          md9ooh10j         md10ooh9j
                     md10ooh8j         md10ooh7j         md10ooh6j
                     c3h6oh1j2         c4h8oh1j2         c5h10oh1j2
                     c6h12oh1j2        c7h14oh1j2        c8h16oh1j2
                     c9h18oh1j2        c3h6oh2j1         c4h8oh2j1
                     c5h10oh2j1        c6h12oh2j1        c7h14oh2j1
                     c8h16oh2j1        c9h18oh2j1        c5h11o-3
                     nc3h7o            ic3h7o            pc4h9o
                     sc4h9o            c5h11o-1          c5h11o-2
                     c6h13o-1          c6h13o-2          c7h15o-1
                     c7h15o-2          c8h17o-1          c8h17o-2
                     c9h19o-1          c9h19o-2          c6h13o-3
                     c7h15o-3          c7h15o-4          c8h17o-3
                     c8h17o-4          c9h19o-3          c9h19o-4
                     c9h19o-5          mp2joh3           mp3joh2
                     mb3joh4           mb4joh3           mf4joh5
                     mf5joh4           mh5joh6           mh6joh5
                     ms6joh7           ms7joh6           mo7joh8
                     mo8joh7           mn8joh9           mn9joh8
                     md9joh10          md10joh9          mp3o
                     mp2o              mb4o              mb3o
                     mf5o              mf4o              mh6o
                     mh5o              ms7o              ms6o
                     mo8o              mo7o              mn9o
                     mn8o              md10o             md9o
                     md8o              md7o              md6o
                     md5o              md4o              md3o
                     md2o              mdmo              memo
                     me2o              mpmo              mbmo
                     mb2o              mfmo              mf2o
                     mf3o              mhmo              mh2o
                     mh3o              mh4o              msmo
                     ms2o              ms3o              ms4o
                     ms5o              mamo              mo2o
                     mo3o              mo4o              mo5o
                     mo6o              mnmo              mn2o
                     mn3o              mn4o              mn5o
                     mn6o              mn7o              mdmooh2o2
                     mdmooh3o2         md2oohmo2         md2ooh3o2
                     md2ooh4o2         md2ooh5o2         md2ooh6o2
                     md3oohmo2         md3ooh2o2         md3ooh4o2
                     md3ooh5o2         md3ooh6o2         md3ooh7o2
                     md4ooh3o2         md4ooh2o2         md4ooh5o2
                     md4ooh6o2         md4ooh7o2         md4ooh8o2
                     md5ooh4o2         md5ooh3o2         md5ooh2o2
                     md5ooh6o2         md5ooh7o2         md5ooh8o2
                     md5ooh9o2         md6ooh5o2         md6ooh4o2
                     md6ooh3o2         md6ooh2o2         md6ooh7o2
                     md6ooh8o2         md6ooh9o2         md6ooh10o2
                     md7ooh6o2         md7ooh5o2         md7ooh4o2
                     md7ooh3o2         md7ooh8o2         md7ooh9o2
                     md7ooh10o2        md8ooh7o2         md8ooh6o2
                     md8ooh5o2         md8ooh4o2         md8ooh9o2
                     md8ooh10o2        md9ooh8o2         md9ooh7o2
                     md9ooh6o2         md9ooh5o2         md9ooh10o2
                     md10ooh9o2        md10ooh8o2        md10ooh7o2
                     md10ooh6o2        mddipxm2j3        mddipx23jm
                     mddipx25j3        mddipx34j2        mddipx36j2
                     mddipxm2j4        mddipx23j4        mddipx25j4
                     mddipx34j5        mddipx36j4        mddipxm2j5
                     mddipx23j5        mddipx25j6        mddipx34j6
                     mddipx36j5        mddipxm2j6        mddipx23j6
                     mddipx25j7        mddipx34j7        mddipx36j7
                     mddipxm3j2        mddipx23j7        mddipx25j8
                     mddipx34j8        mddipx36j8        mddipxm3j4
                     mddipx24j3        mddipx25j9        mddipx35j2
                     mddipx36j9        mddipxm3j5        mddipx24j5
                     mddipx26j3        mddipx35j4        mddipx36j10
                     mddipxm3j6        mddipx24j6        mddipx26j4
                     mddipx35j6        mddipx37j4        mddipxm3j7
                     mddipx24j7        mddipx26j5        mddipx35j7
                     mddipx37j5        mddipx24jm        mddipx24j8
                     mddipx26j7        mddipx35j8        mddipx37j6
                     mddipx25jm        mddipx36jm        mddipx26j8
                     mddipx35j9        mddipx37j8        mddipx26jm
                     mddipx37jm        mddipx26j9        mddipx46j2
                     mddipx37j9        mddipx45j2        mddipx37j2
                     mddipx26j10       mddipx46j3        mddipx37j10
                     mddipx45j3        mddipx47j3        mddipx48j5
                     mddipx46j5        mddipx34jm        mddipx45j6
                     mddipx47j5        mddipx48j6        mddipx46j7
                     mddipx35jm        mddipx45j7        mddipx47j6
                     mddipx48j7        mddipx46j8        mddipx47j2
                     mddipx45j8        mddipx47j8        mddipx48j9
                     mddipx46j9        mddipx48j2        mddipx45j9
                     mddipx47j9        mddipx48j10       mddipx46j10
                     mddipx48j3        mddipx56j2        mddipx47j10
                     mddipx59j6        mddipx68j2        mddipx90j6
                     mddipx56j3        mddipx57j3        mddipx59j7
                     mddipx68j3        mddipx90j7        mddipx56j4
                     mddipx57j4        mddipx59j8        mddipx69j2
                     mddipx90j9        mddipx56j7        mddipx57j6
                     mddipx59j10       mddipx69j3        mddipx90j4
                     mddipx56j8        mddipx57j8        mddipx57j2
                     mddipx69j4        mddipx90j5        mddipx56j9
                     mddipx57j9        mddipx58j2        mddipx70j2
                     mddipx100j5       mddipx56j10       mddipx57j10
                     mddipx58j3        mddipx70j3        mddipx100j6
                     mddipx58j4        mddipx67j2        mddipx59j2
                     mddipx70j4        mddipx100j7       mddipx58j6
                     mddipx67j3        mddipx59j3        mddipx70j5
                     mddipx100j8       mddipx58j7        mddipx67j4
                     mddipx59j4        mddipx80j3        mddipx69j5
                     mddipx58j9        mddipx67j5        mddipx80j6
                     mddipx80j4        mddipx69j7        mddipx58j10
                     mddipx67j8        mddipx80j8        mddipx80j5
                     mddipx69j8        mddipx68j4        mddipx67j9
                     mddipx80j9        mddipx79j3        mddipx69j10
                     mddipx68j5        mddipx67j10       mddipx78j3
                     mddipx79j4        mddipx78j6        mddipx68j7
                     mddipx70j7        mddipx89j4        mddipx78j4
                     mddipx78j9        mddipx68j9        mddipx70j8
                     mddipx89j5        mddipx78j5        mddipx78j10
                     mddipx68j10       mddipx70j9        mddipx89j6
                     mddipx89j10       mddipx79j10       mddipx79j6
                     mddipx79j5        mddipx89j7        mddipx79j8
                     eaoj              paoj              baoj
                     faoj              haoj              saoj
                     oaoj              naoj              daoj
                     md2dmo            md2d2o            md2d3o
                     md2d4o            md2d5o            md2d6o
                     md2d7o            md3dmo            md3d2o
                     md3d3o            md3d4o            md3d5o
                     md3d6o            md3d7o            md3d8o
                     md4d2o            md4d3o            md4d4o
                     md4d5o            md4d6o            md4d7o
                     md4d8o            md4d9o            md5d2o
                     md5d3o            md5d4o            md5d5o
                     md5d6o            md5d7o            md5d8o
                     md5d9o            md5d10o           md6d2o
                     md6d3o            md6d4o            md6d5o
                     md6d6o            md6d7o            md6d8o
                     md6d9o            md6d10o           md7d2o
                     md7d3o            md7d4o            md7d5o
                     md7d6o            md7d7o            md7d8o
                     md7d9o            md7d10o           md8d2o
                     md8d3o            md8d4o            md8d5o
                     md8d6o            md8d7o            md8d8o
                     md8d9o            md8d10o           md9d2o
                     md9d3o            md9d4o            md9d5o
                     md9d6o            md9d7o            md9d8o
                     md9d9o            md9d10o           mdketm2o
                     mdket37o          mdket58o          mdket74o
                     mdket97o          mdketm3o          mdket43o
                     mdket59o          mdket73o          mdket96o
                     mdket2mo          mdket42o          mdket65o
                     mdket78o          mdket95o          mdket23o
                     mdket45o          mdket64o          mdket79o
                     mdket100o         mdket24o          mdket46o
                     mdket63o          mdket80o          mdket109o
                     mdket25o          mdket47o          mdket62o
                     mdket87o          mdket108o         mdket26o
                     mdket48o          mdket67o          mdket86o
                     mdket107o         mdket3mo          mdket54o
                     mdket68o          mdket85o          mdket106o
                     mdket32o          mdket53o          mdket69o
                     mdket84o          mdket34o          mdket52o
                     mdket70o          mdket89o          mdket35o
                     mdket56o          mdket76o          mdket90o
                     mdket36o          mdket57o          mdket75o
                     mdket98o          mdcym23o          mdcy342o
                     mdcy465o          mdcy586o          mdcy707o
                     mdcym24o          mdcy345o          mdcy467o
                     mdcy587o          mdcy708o          mdcym25o